Version 4
SHEET 1 1768 680
WIRE 464 -224 -48 -224
WIRE 816 -224 464 -224
WIRE -48 -160 -48 -224
WIRE 720 -112 240 -112
WIRE 816 -96 816 -224
WIRE 464 -48 464 -224
WIRE -48 -16 -48 -80
WIRE 720 0 720 -112
WIRE 816 0 816 -16
WIRE 816 0 720 0
WIRE 240 16 240 -112
WIRE 304 16 240 16
WIRE 688 16 624 16
WIRE 688 32 688 16
WIRE 816 48 816 0
WIRE -16 96 -80 96
WIRE 128 96 64 96
WIRE 304 96 192 96
WIRE 656 96 624 96
WIRE 656 128 656 96
WIRE 768 128 656 128
WIRE -80 144 -80 96
WIRE 304 176 160 176
WIRE 688 176 688 96
WIRE 688 176 624 176
WIRE 816 176 816 144
WIRE 816 176 688 176
WIRE 1008 176 816 176
WIRE 1216 176 1088 176
WIRE 1408 176 1216 176
WIRE 1584 176 1408 176
WIRE 1712 176 1584 176
WIRE 1216 256 1216 176
WIRE 1408 256 1408 176
WIRE 1584 256 1584 176
WIRE 1712 256 1712 176
WIRE 464 272 464 240
WIRE 816 272 816 176
WIRE 1584 368 1584 320
WIRE 1712 368 1712 336
WIRE 816 384 816 336
WIRE 1216 384 1216 336
WIRE 1216 384 960 384
WIRE 1408 384 1408 320
WIRE 1408 384 1216 384
WIRE 1216 416 1216 384
WIRE 160 480 160 176
WIRE 960 480 960 384
WIRE 960 480 160 480
WIRE 1216 544 1216 496
FLAG 816 384 0
FLAG 1216 544 0
FLAG -80 144 0
FLAG -48 -16 0
FLAG 464 272 0
FLAG 1584 368 0
FLAG 1712 368 0
SYMBOL PowerProducts\\LTC1624 464 96 R0
SYMATTR InstName U1
SYMBOL nmos 768 48 R0
SYMATTR InstName M1
SYMATTR Value Si4412DY
SYMBOL res 800 -112 R0
SYMATTR InstName R1
SYMATTR Value .033
SYMBOL res 1200 240 R0
SYMATTR InstName R3
SYMATTR Value 35.4K
SYMBOL cap 192 80 R90
WINDOW 0 0 32 VBottom 2
WINDOW 3 32 32 VTop 2
SYMATTR InstName C1
SYMATTR Value 220p
SYMBOL res 80 80 R90
WINDOW 0 0 56 VBottom 2
WINDOW 3 32 56 VTop 2
SYMATTR InstName R2
SYMATTR Value 6.8K
SYMBOL voltage -48 -176 R0
WINDOW 123 0 0 Left 0
WINDOW 39 0 0 Left 0
SYMATTR InstName V1
SYMATTR Value PWL(0 0 1µ 12)
SYMBOL schottky 832 336 R180
WINDOW 0 24 64 Left 2
WINDOW 3 24 0 Left 2
SYMATTR InstName D1
SYMATTR Value PDS760
SYMATTR Description Diode
SYMATTR Type diode
SYMBOL res 1200 400 R0
SYMATTR InstName R5
SYMATTR Value 11K
SYMBOL cap 672 32 R0
SYMATTR InstName C3
SYMATTR Value .1µ
SYMATTR SpiceLine V=25 Irms=11.5 Rser=0.015 Lser=0
SYMBOL ind 992 192 R270
WINDOW 0 32 56 VTop 2
WINDOW 3 5 56 VBottom 2
SYMATTR InstName L1
SYMATTR Value 10µ
SYMBOL cap 1392 256 R0
SYMATTR InstName C2
SYMATTR Value 330p
SYMBOL res 1696 240 R0
SYMATTR InstName R4
SYMATTR Value 3
SYMBOL cap 1568 256 R0
SYMATTR InstName C4
SYMATTR Value 100µ
TEXT -96 568 Left 2 !.tran 1.2m
